Version 4
SHEET 1 4020 1216
WIRE 592 -32 336 -32
WIRE 896 -32 672 -32
WIRE 976 -32 896 -32
WIRE 1136 -32 1056 -32
WIRE 1280 -32 1216 -32
WIRE 1744 -32 1280 -32
WIRE 1824 -32 1744 -32
WIRE 1984 -32 1904 -32
WIRE 2128 -32 2064 -32
WIRE 2592 -32 2128 -32
WIRE 2672 -32 2592 -32
WIRE 2832 -32 2752 -32
WIRE 2976 -32 2912 -32
WIRE 3312 -32 2976 -32
WIRE 2592 16 2592 -32
WIRE 2976 16 2976 -32
WIRE 3312 16 3312 -32
WIRE 896 48 896 -32
WIRE 1280 48 1280 -32
WIRE 1744 48 1744 -32
WIRE 2128 48 2128 -32
WIRE 3312 128 3312 96
WIRE 768 144 720 144
WIRE 896 144 896 112
WIRE 896 144 848 144
WIRE 1280 144 1280 112
WIRE 1344 144 1280 144
WIRE 1472 144 1424 144
WIRE 1616 144 1568 144
WIRE 1744 144 1744 112
WIRE 1744 144 1696 144
WIRE 2128 144 2128 112
WIRE 2192 144 2128 144
WIRE 2320 144 2272 144
WIRE 2448 144 2400 144
WIRE 2592 144 2592 80
WIRE 2592 144 2528 144
WIRE 2976 144 2976 80
WIRE 3024 144 2976 144
WIRE 3152 144 3104 144
WIRE 896 176 896 144
WIRE 1280 176 1280 144
WIRE 1744 176 1744 144
WIRE 2128 176 2128 144
WIRE 2592 192 2592 144
WIRE 2976 192 2976 144
WIRE 896 304 896 256
WIRE 1088 304 896 304
WIRE 1280 304 1280 256
WIRE 1280 304 1088 304
WIRE 1744 304 1744 256
WIRE 1936 304 1744 304
WIRE 2128 304 2128 256
WIRE 2128 304 1936 304
WIRE 2592 304 2592 272
WIRE 2784 304 2592 304
WIRE 2976 304 2976 272
WIRE 2976 304 2784 304
WIRE 1088 336 1088 304
WIRE 1936 336 1936 304
WIRE 2784 336 2784 304
WIRE 336 416 336 -32
WIRE 1088 432 1088 400
WIRE 1088 432 896 432
WIRE 1280 432 1088 432
WIRE 1936 432 1936 400
WIRE 1936 432 1744 432
WIRE 2128 432 1936 432
WIRE 2784 432 2784 400
WIRE 2784 432 2592 432
WIRE 2976 432 2784 432
WIRE 2592 464 2592 432
WIRE 2976 464 2976 432
WIRE 896 480 896 432
WIRE 1280 480 1280 432
WIRE 1744 480 1744 432
WIRE 2128 480 2128 432
WIRE 752 592 704 592
WIRE 896 592 896 560
WIRE 896 592 832 592
WIRE 1280 592 1280 560
WIRE 1328 592 1280 592
WIRE 1456 592 1408 592
WIRE 1600 592 1552 592
WIRE 1744 592 1744 560
WIRE 1744 592 1680 592
WIRE 2128 592 2128 560
WIRE 2176 592 2128 592
WIRE 2304 592 2256 592
WIRE 2464 592 2416 592
WIRE 2592 592 2592 544
WIRE 2592 592 2544 592
WIRE 2976 592 2976 544
WIRE 3040 592 2976 592
WIRE 3168 592 3120 592
WIRE 896 624 896 592
WIRE 1280 624 1280 592
WIRE 1744 624 1744 592
WIRE 2128 624 2128 592
WIRE 2592 656 2592 592
WIRE 2976 656 2976 592
WIRE 3312 656 3312 592
WIRE 336 768 336 496
WIRE 560 768 336 768
WIRE 896 768 896 688
WIRE 896 768 640 768
WIRE 960 768 896 768
WIRE 1120 768 1040 768
WIRE 1280 768 1280 688
WIRE 1280 768 1200 768
WIRE 1744 768 1744 688
WIRE 1744 768 1280 768
WIRE 1808 768 1744 768
WIRE 1968 768 1888 768
WIRE 2128 768 2128 688
WIRE 2128 768 2048 768
WIRE 2592 768 2592 720
WIRE 2592 768 2128 768
WIRE 2656 768 2592 768
WIRE 2816 768 2736 768
WIRE 2976 768 2976 720
WIRE 2976 768 2896 768
WIRE 3312 768 3312 736
WIRE 3312 768 2976 768
WIRE 336 784 336 768
FLAG 720 144 0
FLAG 1472 144 0
FLAG 1456 592 0
FLAG 704 592 0
FLAG 1568 144 0
FLAG 2320 144 0
FLAG 2304 592 0
FLAG 1552 592 0
FLAG 2400 144 0
FLAG 3152 144 0
FLAG 3168 592 0
FLAG 2416 592 0
FLAG 3312 592 0
FLAG 3312 128 0
SYMBOL voltage 336 400 R0
WINDOW 123 24 124 Left 2
WINDOW 39 24 152 Left 2
SYMATTR Value2 AC 1
SYMATTR SpiceLine Rser=0
SYMATTR InstName V1
SYMATTR Value 1
SYMBOL res 688 -48 R90
WINDOW 0 0 56 VBottom 2
WINDOW 3 32 56 VTop 2
SYMATTR InstName R7
SYMATTR Value {R}
SYMBOL res 656 752 R90
WINDOW 0 0 56 VBottom 2
WINDOW 3 33 53 VTop 2
SYMATTR InstName R8
SYMATTR Value {R}
SYMBOL ind 960 -16 R270
WINDOW 0 32 56 VTop 2
WINDOW 3 5 56 VBottom 2
SYMATTR InstName L1
SYMATTR Value {L1}
SYMATTR SpiceLine Rser={L1_res} Cpar={L1_par}
SYMBOL cap 880 48 R0
SYMATTR InstName C1
SYMATTR Value {C1}
SYMBOL ind 1120 -16 R270
WINDOW 0 32 56 VTop 2
WINDOW 3 5 56 VBottom 2
SYMATTR InstName L3
SYMATTR Value {L1}
SYMATTR SpiceLine Rser={L1_res} Cpar={L1_par}
SYMBOL cap 1264 48 R0
SYMATTR InstName C2
SYMATTR Value {C1}
SYMBOL res 912 272 R180
WINDOW 0 36 76 Left 2
WINDOW 3 36 40 Left 2
SYMATTR InstName R1
SYMATTR Value {R}
SYMBOL res 1296 272 R180
WINDOW 0 36 76 Left 2
WINDOW 3 36 40 Left 2
SYMATTR InstName R2
SYMATTR Value {R}
SYMBOL ind 752 160 R270
WINDOW 0 32 56 VTop 2
WINDOW 3 5 56 VBottom 2
SYMATTR InstName L4
SYMATTR Value {L1}
SYMATTR SpiceLine Rser={L1_res} Cpar={L1_par}
SYMBOL ind 1328 160 R270
WINDOW 0 32 56 VTop 2
WINDOW 3 5 56 VBottom 2
SYMATTR InstName L5
SYMATTR Value {L1}
SYMATTR SpiceLine Rser={L1_res} Cpar={L1_par}
SYMBOL cap 1072 336 R0
SYMATTR InstName C3
SYMATTR Value {C1}
SYMBOL ind 1216 752 R90
WINDOW 0 5 56 VBottom 2
WINDOW 3 32 56 VTop 2
SYMATTR InstName L6
SYMATTR Value {L1}
SYMATTR SpiceLine Rser={L1_res} Cpar={L1_par}
SYMBOL cap 1296 688 R180
WINDOW 0 24 56 Left 2
WINDOW 3 24 8 Left 2
SYMATTR InstName C4
SYMATTR Value {C1}
SYMBOL ind 1056 752 R90
WINDOW 0 5 56 VBottom 2
WINDOW 3 32 56 VTop 2
SYMATTR InstName L7
SYMATTR Value {L1}
SYMATTR SpiceLine Rser={L1_res} Cpar={L1_par}
SYMBOL cap 912 688 R180
WINDOW 0 24 56 Left 2
WINDOW 3 24 8 Left 2
SYMATTR InstName C5
SYMATTR Value {C1}
SYMBOL res 1264 464 R0
SYMATTR InstName R3
SYMATTR Value {R}
SYMBOL res 880 464 R0
SYMATTR InstName R4
SYMATTR Value {R}
SYMBOL ind 1424 576 R90
WINDOW 0 5 56 VBottom 2
WINDOW 3 32 56 VTop 2
SYMATTR InstName L8
SYMATTR Value {L1}
SYMATTR SpiceLine Rser={L1_res} Cpar={L1_par}
SYMBOL ind 848 576 R90
WINDOW 0 5 56 VBottom 2
WINDOW 3 32 56 VTop 2
SYMATTR InstName L9
SYMATTR Value {L1}
SYMATTR SpiceLine Rser={L1_res} Cpar={L1_par}
SYMBOL ind 1808 -16 R270
WINDOW 0 32 56 VTop 2
WINDOW 3 5 56 VBottom 2
SYMATTR InstName L2
SYMATTR Value {L1}
SYMATTR SpiceLine Rser={L1_res} Cpar={L1_par}
SYMBOL cap 1728 48 R0
SYMATTR InstName C6
SYMATTR Value {C1}
SYMBOL ind 1968 -16 R270
WINDOW 0 32 56 VTop 2
WINDOW 3 5 56 VBottom 2
SYMATTR InstName L10
SYMATTR Value {L1}
SYMATTR SpiceLine Rser={L1_res} Cpar={L1_par}
SYMBOL cap 2112 48 R0
SYMATTR InstName C7
SYMATTR Value {C1}
SYMBOL res 1760 272 R180
WINDOW 0 36 76 Left 2
WINDOW 3 36 40 Left 2
SYMATTR InstName R9
SYMATTR Value {R}
SYMBOL res 2144 272 R180
WINDOW 0 36 76 Left 2
WINDOW 3 36 40 Left 2
SYMATTR InstName R10
SYMATTR Value {R}
SYMBOL ind 1600 160 R270
WINDOW 0 32 56 VTop 2
WINDOW 3 5 56 VBottom 2
SYMATTR InstName L11
SYMATTR Value {L1}
SYMATTR SpiceLine Rser={L1_res} Cpar={L1_par}
SYMBOL ind 2176 160 R270
WINDOW 0 32 56 VTop 2
WINDOW 3 5 56 VBottom 2
SYMATTR InstName L12
SYMATTR Value {L1}
SYMATTR SpiceLine Rser={L1_res} Cpar={L1_par}
SYMBOL cap 1920 336 R0
SYMATTR InstName C8
SYMATTR Value {C1}
SYMBOL ind 2064 752 R90
WINDOW 0 5 56 VBottom 2
WINDOW 3 32 56 VTop 2
SYMATTR InstName L13
SYMATTR Value {L1}
SYMATTR SpiceLine Rser={L1_res} Cpar={L1_par}
SYMBOL cap 2144 688 R180
WINDOW 0 24 56 Left 2
WINDOW 3 24 8 Left 2
SYMATTR InstName C9
SYMATTR Value {C1}
SYMBOL ind 1904 752 R90
WINDOW 0 5 56 VBottom 2
WINDOW 3 32 56 VTop 2
SYMATTR InstName L14
SYMATTR Value {L1}
SYMATTR SpiceLine Rser={L1_res} Cpar={L1_par}
SYMBOL cap 1760 688 R180
WINDOW 0 24 56 Left 2
WINDOW 3 24 8 Left 2
SYMATTR InstName C10
SYMATTR Value {C1}
SYMBOL res 2112 464 R0
SYMATTR InstName R11
SYMATTR Value {R}
SYMBOL res 1728 464 R0
SYMATTR InstName R12
SYMATTR Value {R}
SYMBOL ind 2272 576 R90
WINDOW 0 5 56 VBottom 2
WINDOW 3 32 56 VTop 2
SYMATTR InstName L15
SYMATTR Value {L1}
SYMATTR SpiceLine Rser={L1_res} Cpar={L1_par}
SYMBOL ind 1696 576 R90
WINDOW 0 5 56 VBottom 2
WINDOW 3 32 56 VTop 2
SYMATTR InstName L16
SYMATTR Value {L1}
SYMATTR SpiceLine Rser={L1_res} Cpar={L1_par}
SYMBOL ind 2656 -16 R270
WINDOW 0 32 56 VTop 2
WINDOW 3 5 56 VBottom 2
SYMATTR InstName L17
SYMATTR Value {L2}
SYMATTR SpiceLine Rser={L2_res} Cpar={L2_par}
SYMBOL ind 2816 -16 R270
WINDOW 0 32 56 VTop 2
WINDOW 3 5 56 VBottom 2
SYMATTR InstName L18
SYMATTR Value {L2}
SYMATTR SpiceLine Rser={L2_res} Cpar={L2_par}
SYMBOL cap 2960 16 R0
SYMATTR InstName C11
SYMATTR Value {C2}
SYMBOL cap 2576 16 R0
SYMATTR InstName C12
SYMATTR Value {C2}
SYMBOL ind 3008 160 R270
WINDOW 0 32 56 VTop 2
WINDOW 3 5 56 VBottom 2
SYMATTR InstName L19
SYMATTR Value {L2}
SYMATTR SpiceLine Rser={L2_res} Cpar={L2_par}
SYMBOL ind 2432 160 R270
WINDOW 0 32 56 VTop 2
WINDOW 3 5 56 VBottom 2
SYMATTR InstName L20
SYMATTR Value {L2}
SYMATTR SpiceLine Rser={L2_res} Cpar={L2_par}
SYMBOL res 2608 288 R180
WINDOW 0 36 76 Left 2
WINDOW 3 36 40 Left 2
SYMATTR InstName R5
SYMATTR Value {R}
SYMBOL res 2992 288 R180
WINDOW 0 36 76 Left 2
WINDOW 3 36 40 Left 2
SYMATTR InstName R6
SYMATTR Value {R}
SYMBOL cap 2768 336 R0
SYMATTR InstName C14
SYMATTR Value {C2}
SYMBOL ind 2912 752 R90
WINDOW 0 5 56 VBottom 2
WINDOW 3 32 56 VTop 2
SYMATTR InstName L21
SYMATTR Value {L2}
SYMATTR SpiceLine Rser={L2_res} Cpar={L2_par}
SYMBOL ind 2752 752 R90
WINDOW 0 5 56 VBottom 2
WINDOW 3 32 56 VTop 2
SYMATTR InstName L22
SYMATTR Value {L2}
SYMATTR SpiceLine Rser={L2_res} Cpar={L2_par}
SYMBOL cap 2608 720 R180
WINDOW 0 24 56 Left 2
WINDOW 3 24 8 Left 2
SYMATTR InstName C13
SYMATTR Value {C2}
SYMBOL cap 2992 720 R180
WINDOW 0 24 56 Left 2
WINDOW 3 24 8 Left 2
SYMATTR InstName C15
SYMATTR Value {C2}
SYMBOL ind 2560 576 R90
WINDOW 0 5 56 VBottom 2
WINDOW 3 32 56 VTop 2
SYMATTR InstName L23
SYMATTR Value {L2}
SYMATTR SpiceLine Rser={L2_res} Cpar={L2_par}
SYMBOL ind 3136 576 R90
WINDOW 0 5 56 VBottom 2
WINDOW 3 32 56 VTop 2
SYMATTR InstName L24
SYMATTR Value {L2}
SYMATTR SpiceLine Rser={L2_res} Cpar={L2_par}
SYMBOL res 2960 448 R0
SYMATTR InstName R13
SYMATTR Value {R}
SYMBOL res 2576 448 R0
SYMATTR InstName R14
SYMATTR Value {R}
SYMBOL res 3328 112 R180
WINDOW 0 36 76 Left 2
WINDOW 3 36 40 Left 2
SYMATTR InstName R15
SYMATTR Value {R}
SYMBOL res 3328 752 R180
WINDOW 0 36 76 Left 2
WINDOW 3 36 40 Left 2
SYMATTR InstName R16
SYMATTR Value {R}
TEXT 0 -16 Left 2 !.ac dec 1000 100k 20MEG
TEXT 0 200 Left 2 !.param C1=1.6n
TEXT 0 152 Left 2 !.param L1=3.9u
TEXT 0 128 Left 2 !.param L1_res=4
TEXT 0 176 Left 2 !.param L1_par=4p
TEXT 0 64 Left 2 !.param R=50
TEXT 0 360 Left 2 !.param C2=1n
TEXT 0 312 Left 2 !.param L2=2.7u
TEXT 0 288 Left 2 !.param L2_res=3
TEXT 0 336 Left 2 !.param L2_par=4p
